ipss.tutorial/testData/psse/IEEE9Bus/ieee9.seq
 0,  30           / PSS(R)E 30 SEQ created by RWSQVERSION  FRI, JUN 21 2013  16:16
     1,'1 ', 0.00000E+00, 0.04
     2,'1 ', 0.00000E+00, 0.089
     3,'1 ', 0.00000E+00, 0.107
 0 /End of Positive sequence Generator data, Begin Negative sequence Generator data
     1,'1 ', 0.00000E+00, 0.04
     2,'1 ', 0.00000E+00, 0.089
     3,'1 ', 0.00000E+00, 0.107
 0 /End of Negative sequence Generator data, Begin Zero sequence Generator data
     1,'1 ', 0.00000E+00, 0.04
     2,'1 ', 0.00000E+00, 0.089
     3,'1 ', 0.00000E+00, 0.107
 0 /End of Zero sequence Generator data, Begin Negative sequence Load data
 0 /End of Negative sequence Load data, Begin Zero sequence Load data
 0 /End of Zero sequence Load data, Begin Zero sequence Branch data
     7,      8,'0 ',   0.02125,	  0.18,      0.14900,   0.00000,  0.00000,  0.00000, 0.00000
     8,      9,'0 ',   0.02975,	  0.252,     0.20900,  0.00000,  0.00000,  0.00000,  0.00000
     5,      7,'0 ',   0.08,   	  0.4025,    0.30600,  0.00000,  0.00000,  0.00000,  0.00000
     6,      9,'0 ',   0.0975,	  0.425,     0.35800,   0.00000,  0.00000,  0.00000, 0.00000
     4,      5,'0 ',   0.025,	  0.2125,    0.17600,   0.00000,  0.00000,  0.00000, 0.00000
     4,      6,'0 ',   0.0425,	  0.23,      0.15800,    0.00000,  0.00000,  0.00000,0.00000
 0 /End of Zero sequence Branch data, Begin Zero sequence Mutual data
 0 /End of Zero sequence Mutual data, Begin Zero sequence Transformer data
   1,  4,  0,  '1',  3,   0,  0, 0.0000,  0.0567,  0, 0
   2,  7,  0,  '1',  3,   0,  0, 0.0000,  0.0625,  0, 0
   3,  9,  0,  '1',  3,   0,  0, 0.0000,  0.0586,  0, 0
 0 /End of Zero sequence Transformer data, Begin Zero sequence Switched shunt data
 0  / END OF ZERO SEQ. SWITCHED SHUNT DATA, BEGIN ZERO SEQ. FIXED SHUNT DATA
 0  / END OF ZERO SEQ. FIXED SHUNT DATA